Version 4
SHEET 1 992 680
WIRE 160 -64 -32 -64
WIRE 592 -32 448 -32
WIRE -624 16 -624 -32
WIRE 48 16 48 -16
WIRE 512 16 512 -16
WIRE -32 32 -32 -64
WIRE 16 32 -32 32
WIRE 448 32 448 -32
WIRE 480 32 448 32
WIRE 160 48 160 -64
WIRE 160 48 80 48
WIRE 592 48 592 -32
WIRE 592 48 544 48
WIRE 720 48 592 48
WIRE -288 64 -352 64
WIRE -32 64 -208 64
WIRE 16 64 -32 64
WIRE 160 64 160 48
WIRE 256 64 160 64
WIRE 352 64 336 64
WIRE 368 64 352 64
WIRE 480 64 448 64
WIRE -32 80 -32 64
WIRE -352 96 -352 64
WIRE 48 112 48 80
WIRE 448 112 448 64
WIRE 512 112 512 80
WIRE -624 160 -624 96
WIRE -352 208 -352 176
WIRE -32 224 -32 144
WIRE 448 224 448 176
WIRE 352 288 352 64
WIRE 528 288 352 288
WIRE 720 288 720 48
WIRE 720 288 592 288
FLAG -624 160 0
FLAG -624 -32 VCC
FLAG -352 208 0
FLAG -32 224 0
FLAG 448 224 0
FLAG 48 -16 Vcc
FLAG 512 -16 Vcc
FLAG 48 112 0
FLAG 512 112 0
SYMBOL res -192 48 R90
WINDOW 0 0 56 VBottom 2
WINDOW 3 32 56 VTop 2
SYMATTR InstName R1
SYMATTR Value 6.190K
SYMBOL voltage -624 0 R0
WINDOW 123 0 0 Left 2
WINDOW 39 0 0 Left 2
SYMATTR InstName V1
SYMATTR Value 3
SYMBOL voltage -352 80 R0
WINDOW 123 24 124 Left 2
WINDOW 39 0 0 Left 2
SYMATTR InstName V2
SYMATTR Value PULSE(0 2 0 0.01ms 0.01ms 0.5ms 1ms)
SYMATTR Value2 AC 1
SYMBOL cap -48 80 R0
SYMATTR InstName C1
SYMATTR Value 10nF
SYMBOL res 352 48 R90
WINDOW 0 0 56 VBottom 2
WINDOW 3 32 56 VTop 2
SYMATTR InstName R2
SYMATTR Value 4.99K
SYMBOL res 464 48 R90
WINDOW 0 0 56 VBottom 2
WINDOW 3 32 56 VTop 2
SYMATTR InstName R3
SYMATTR Value 6.650K
SYMBOL cap 432 112 R0
SYMATTR InstName C2
SYMATTR Value 10nF
SYMBOL cap 592 272 R90
WINDOW 0 0 32 VBottom 2
WINDOW 3 32 32 VTop 2
SYMATTR InstName C3
SYMATTR Value 11nF
SYMBOL Opamps\\LT6221 48 48 R0
SYMATTR InstName U3
SYMBOL Opamps\\LT6221 512 48 R0
SYMATTR InstName U1
TEXT -658 340 Left 2 !.tran 0 10ms 1ms 1ms
